@<TRIPOS>MOLECULE
RES
9 9 1 0 1
SMALL
NO_CHARGES
@<TRIPOS>CRYSIN
    8.3626     9.5394     5.0136    90.0000    90.0000    90.0000  1  1
@<TRIPOS>ATOM
       1 C            1.3850     0.7163     0.0015 C             1 RES     
       2 C            0.1066     1.2299    -0.0041 C             1 RES     
       3 S           -1.0817    -0.0020    -0.0068 S             1 RES     
       4 C            0.1123    -1.2284    -0.0044 C             1 RES     
       5 C            1.3882    -0.7088     0.0023 C             1 RES     
       6 H            2.2747     1.3338     0.0045 H             1 RES     
       7 H           -0.1900     2.2698    -0.0066 H             1 RES     
       8 H           -0.1795    -2.2696    -0.0074 H             1 RES     
       9 H            2.2808    -1.3223     0.0062 H             1 RES     
@<TRIPOS>BOND
       1        2        1 1
       2        5        1 1
       3        6        1 1
       4        3        2 1
       5        7        2 1
       6        4        3 1
       7        5        4 1
       8        8        4 1
       9        9        5 1
@<TRIPOS>SUBSTRUCTURE
       1 RES             1 RESIDUE    0 **** ROOT      0
